Version 4
SHEET 1 880 680
WIRE 288 -2240 272 -2240
WIRE 416 -2240 368 -2240
WIRE 512 -2240 496 -2240
WIRE 608 -2240 592 -2240
WIRE -512 -2208 -624 -2208
WIRE -416 -2208 -512 -2208
WIRE -96 -2208 -160 -2208
WIRE -64 -2208 -96 -2208
WIRE -624 -2176 -624 -2208
WIRE -512 -2176 -512 -2208
WIRE -96 -2176 -96 -2208
WIRE 528 -2176 192 -2176
WIRE 272 -2128 272 -2240
WIRE 304 -2128 272 -2128
WIRE 416 -2128 416 -2240
WIRE 416 -2128 368 -2128
WIRE 608 -2096 608 -2240
WIRE -624 -2080 -624 -2096
WIRE -512 -2080 -512 -2112
WIRE -512 -2080 -624 -2080
WIRE -288 -2080 -288 -2112
WIRE -288 -2080 -512 -2080
WIRE -96 -2080 -96 -2112
WIRE -96 -2080 -288 -2080
WIRE 272 -2080 272 -2128
WIRE 192 -2064 192 -2176
WIRE 240 -2064 192 -2064
WIRE 544 -2048 304 -2048
WIRE -288 -2032 -288 -2080
WIRE 32 -2032 -32 -2032
WIRE 144 -2032 112 -2032
WIRE 240 -2032 144 -2032
WIRE 528 -1968 528 -2176
WIRE 608 -1968 608 -2000
WIRE 608 -1968 528 -1968
WIRE 608 -1952 608 -1968
WIRE -32 -1920 -32 -2032
WIRE 144 -1904 144 -2032
WIRE 608 -1840 608 -1872
WIRE -32 -1728 -32 -1840
WIRE 144 -1728 144 -1840
WIRE 144 -1728 -32 -1728
WIRE 272 -1728 272 -2016
WIRE 272 -1728 144 -1728
WIRE 336 -1728 272 -1728
WIRE 416 -1728 416 -2128
WIRE 416 -1728 336 -1728
WIRE 496 -1728 496 -2240
WIRE 496 -1728 416 -1728
WIRE 608 -1728 608 -1760
WIRE 608 -1728 496 -1728
WIRE 336 -1696 336 -1728
FLAG 336 -1696 0
FLAG -288 -2032 0
SYMBOL OpAmps\\UniversalOpAmp 272 -2048 R0
WINDOW 0 6 43 Left 2
SYMATTR InstName op-amp
SYMBOL npn 544 -2096 R0
SYMATTR InstName Transistor
SYMATTR Value 2N2222
SYMBOL voltage -32 -1936 R0
WINDOW 0 -76 5 Left 2
WINDOW 123 0 0 Left 0
WINDOW 39 0 0 Left 0
WINDOW 3 24 96 Invisible 2
SYMATTR InstName PWM
SYMATTR Value PULSE(0 5 0 0 0 0.00040 0.00066 1000)
SYMBOL res 592 -1968 R0
SYMATTR InstName R1
SYMATTR Value 20
SYMATTR SpiceLine tol=1 pwr=1
SYMBOL polcap 128 -1904 R0
WINDOW 3 24 56 Left 2
SYMATTR Value 100µ
SYMATTR InstName C0
SYMATTR Description Capacitor
SYMATTR Type cap
SYMATTR SpiceLine V=10 Irms=1.9 Rser=0.04 Lser=0 mfg="SANYO" pn="10TPC100M" type="Tantalum"
SYMBOL res 128 -2048 R90
WINDOW 0 0 56 VBottom 2
WINDOW 3 32 56 VTop 2
SYMATTR InstName R0
SYMATTR Value 220
SYMBOL ind 592 -1856 R0
SYMATTR InstName Spiral_coil
SYMATTR Value 3.81µH
SYMATTR SpiceLine Rser=0.55
SYMBOL voltage 608 -2240 R90
WINDOW 0 -60 -104 VRight 2
WINDOW 3 46 11 VRight 2
WINDOW 123 0 0 Left 0
WINDOW 39 0 0 Left 0
SYMATTR InstName Voltage_regulator_2
SYMATTR Value 6V
SYMBOL voltage 272 -2240 R270
WINDOW 0 60 -86 VRight 2
WINDOW 3 -35 90 VRight 2
WINDOW 123 0 0 Left 0
WINDOW 39 0 0 Left 0
SYMATTR InstName Voltage_regulator_1
SYMATTR Value 6V
SYMBOL cap 368 -2144 R90
WINDOW 0 -4 28 VBottom 2
WINDOW 3 41 26 VTop 2
SYMATTR InstName C1
SYMATTR Value 0.1µF
SYMATTR SpiceLine V=16
SYMBOL PowerProducts\\LT1083-5 -288 -2208 R0
WINDOW 0 1 -75 Bottom 2
WINDOW 3 396 -203 Left 2
SYMATTR InstName Voltage_regulator_6V
SYMBOL cap -528 -2176 R0
SYMATTR InstName C2
SYMATTR Value 0.33µF
SYMBOL cap -112 -2176 R0
SYMATTR InstName C3
SYMATTR Value 0.1µF
SYMBOL voltage -624 -2192 R0
WINDOW 0 -57 -34 VRight 2
WINDOW 123 0 0 Left 0
WINDOW 39 0 0 Left 0
SYMATTR InstName Power_supply
SYMATTR Value 9V
TEXT -144 -1832 Left 2 !.tran 0.5
TEXT -144 -2232 Left 2 ;+6 V output
