Version 4
SHEET 1 948 680
WIRE 128 -864 96 -864
WIRE -256 -784 -368 -784
WIRE -80 -784 -176 -784
WIRE -16 -784 -80 -784
WIRE 176 -784 64 -784
WIRE 224 -784 176 -784
WIRE 352 -784 304 -784
WIRE 128 -736 128 -864
WIRE 64 -720 64 -784
WIRE 96 -720 64 -720
WIRE 128 -720 128 -736
WIRE -368 -704 -368 -784
WIRE -80 -704 -80 -784
WIRE 176 -704 176 -784
WIRE 176 -704 160 -704
WIRE 352 -704 352 -784
WIRE -16 -688 -16 -784
WIRE 96 -688 -16 -688
WIRE 128 -672 128 -688
WIRE -368 -544 -368 -624
WIRE -80 -544 -80 -640
WIRE -80 -544 -368 -544
WIRE 16 -544 16 -864
WIRE 16 -544 -80 -544
WIRE 128 -544 128 -672
WIRE 128 -544 16 -544
WIRE 352 -544 352 -624
WIRE 352 -544 128 -544
WIRE -80 -496 -80 -544
FLAG -80 -496 0
SYMBOL voltage -368 -720 R0
WINDOW 3 24 96 Invisible 2
WINDOW 123 0 0 Left 0
WINDOW 39 0 0 Left 0
SYMATTR Value PULSE(0 5 0 0 0 0.0006 0.00066 1000)
SYMATTR InstName PWM
SYMBOL res -160 -800 R90
WINDOW 0 0 56 VBottom 2
WINDOW 3 38 54 VTop 2
SYMATTR InstName R0
SYMATTR Value 220
SYMBOL polcap -96 -704 R0
WINDOW 0 -30 -5 Left 2
WINDOW 3 -60 58 Left 2
SYMATTR InstName C0
SYMATTR Value 100µF
SYMATTR SpiceLine V=10 Irms=1.9 Rser=0.04 Lser=0 mfg="SANYO" pn="10TPC100M" type="Tantalum"
SYMATTR Description Capacitor
SYMATTR Type cap
SYMBOL ind 336 -720 R0
SYMATTR InstName Spiral_Coil
SYMATTR Value 211.58µH
SYMATTR SpiceLine Rser=14.14
SYMBOL OpAmps\\UniversalOpAmp 128 -704 R0
WINDOW 0 23 24 Left 2
SYMATTR InstName op-amp
SYMBOL voltage 112 -864 R90
WINDOW 123 0 0 Left 0
WINDOW 39 0 0 Left 0
WINDOW 0 -55 -29 VRight 2
WINDOW 3 47 35 VRight 2
SYMATTR InstName op-amp_power
SYMATTR Value 6V
SYMBOL res 320 -800 R90
WINDOW 0 -2 58 VBottom 2
WINDOW 3 32 56 VTop 2
SYMATTR InstName R1
SYMATTR Value 170
TEXT -352 -616 Left 2 !.tran 0.5
